Circuit: *** SPICE deck for cell 1bit{lay} from library 6-comp.en.yeni

Ignoring BSIM parameter XL
Ignoring BSIM parameter XW
Ignoring BSIM parameter XL
Ignoring BSIM parameter XW
WARNING: Node OUT is floating.

WARNING: Less than two connections to node OUT.  This node is used by CLOAD.
Direct Newton iteration for .op point succeeded.

Date: Thu Jan 30 15:02:05 2020
Total elapsed time: 0.157 seconds.

tnom = 27
temp = 27
method = modified trap
totiter = 2119
traniter = 2082
tranpoints = 1042
accept = 1042
rejected = 0
matrix size = 32
fillins = 6
solver = Normal
Thread vector: 25.7/20.7[4] 8.1/3.9[4] 2.3/1.5[4] 0.2/1.3[1]  2592/500
Matrix Compiler1: 3.34 KB object code size  1.0/1.1/[0.3]
Matrix Compiler2: 3.56 KB object code size  1.1/0.7/[0.3]

