Circuit: *** SPICE deck for cell 6-comp{lay} from library 6-comp.en.yeni

Ignoring BSIM parameter XL
Ignoring BSIM parameter XW
Ignoring BSIM parameter XL
Ignoring BSIM parameter XW
WARNING: Node OUT is floating.

WARNING: Less than two connections to node OUT.  This node is used by CLOAD.
Direct Newton iteration for .op point succeeded.

Date: Thu Jan 30 17:11:20 2020
Total elapsed time: 1.799 seconds.

tnom = 27
temp = 27
method = modified trap
totiter = 2969
traniter = 2923
tranpoints = 1283
accept = 1252
rejected = 31
matrix size = 188
fillins = 226
solver = Normal
Thread vector: 352.9/102.0[8] 84.3/28.2[8] 17.1/11.5[5] 2.7/3.1[1]  2592/500
Matrix Compiler1: 35.12 KB object code size  13.1/6.6/[4.5]
Matrix Compiler2: 26.15 KB object code size  12.2/17.1/[4.5]

