Circuit: *** SPICE deck for cell 6bit-comp{lay} from library 6bit-comporator

Ignoring BSIM parameter XL
Ignoring BSIM parameter XW
Ignoring BSIM parameter XL
Ignoring BSIM parameter XW
WARNING: Node OUT is floating.

WARNING: Less than two connections to node OUT.  This node is used by CLOAD.
Direct Newton iteration for .op point succeeded.
Heightened Def Con from 4.8e-007 to 4.8e-007
Heightened Def Con from 7.6e-007 to 7.6e-007
Heightened Def Con from 8.8e-007 to 8.8e-007
Heightened Def Con from 1.16e-006 to 1.16e-006
Heightened Def Con from 1.2e-006 to 1.20001e-006
Heightened Def Con from 1.24e-006 to 1.24e-006
Heightened Def Con from 1.44e-006 to 1.44001e-006
Heightened Def Con from 1.52e-006 to 1.52001e-006
Heightened Def Con from 1.68e-006 to 1.68e-006
Heightened Def Con from 1.84e-006 to 1.84001e-006

Date: Fri Jan 31 16:35:07 2020
Total elapsed time: 8.061 seconds.

tnom = 27
temp = 27
method = modified trap
totiter = 35977
traniter = 35931
tranpoints = 11883
accept = 9602
rejected = 2291
matrix size = 188
fillins = 226
solver = Normal
Thread vector: 600.0/121.0[8] 110.4/19.2[8] 31.7/13.3[8] 6.4/5.2[3]  2592/500
Matrix Compiler1: 35.12 KB object code size  18.2/9.6/[5.4]
Matrix Compiler2: 26.15 KB object code size  8.4/10.0/[7.5]

